Version 4
SHEET 1 2492 1336
WIRE 416 208 384 208
WIRE 560 224 480 224
WIRE 1200 224 1168 224
WIRE 224 240 -32 240
WIRE 304 240 288 240
WIRE 416 240 304 240
WIRE 1392 240 1264 240
WIRE 1520 240 1392 240
WIRE 560 256 560 224
WIRE 672 256 560 256
WIRE 752 256 736 256
WIRE 976 256 752 256
WIRE 1088 256 1056 256
WIRE 1200 256 1088 256
WIRE -32 272 -32 240
WIRE 1744 272 1712 272
WIRE 1792 272 1744 272
WIRE 752 304 752 256
WIRE 1792 304 1792 272
WIRE 2064 304 1888 304
WIRE 304 320 304 240
WIRE 1088 320 1088 256
WIRE 1712 320 1712 272
WIRE 1168 336 1168 224
WIRE 1248 336 1168 336
WIRE 1392 336 1392 240
WIRE 1392 336 1328 336
WIRE -32 384 -32 352
WIRE 384 384 384 208
WIRE 432 384 384 384
WIRE 560 384 560 256
WIRE 560 384 512 384
WIRE 752 400 752 384
WIRE 1888 400 1888 304
WIRE 1936 400 1888 400
WIRE 384 416 384 384
WIRE 2064 416 2064 304
WIRE 2064 416 2000 416
WIRE 2112 416 2064 416
WIRE 1792 432 1792 384
WIRE 1872 432 1792 432
WIRE 1936 432 1872 432
WIRE 1088 464 1088 384
WIRE 1136 464 1088 464
WIRE 1168 464 1168 416
WIRE 1168 464 1136 464
WIRE 1792 464 1792 432
WIRE 1872 480 1872 432
WIRE 304 512 304 400
WIRE 352 512 304 512
WIRE 384 512 384 496
WIRE 384 512 352 512
WIRE 1136 528 1136 464
WIRE 352 544 352 512
WIRE 1712 560 1712 400
WIRE 1744 560 1712 560
WIRE 1792 560 1792 544
WIRE 1792 560 1744 560
WIRE 1872 560 1872 544
WIRE 1872 560 1792 560
WIRE 1744 592 1744 560
WIRE 1520 624 1520 240
WIRE 1520 624 -192 624
WIRE 2144 864 1936 864
WIRE 2272 880 2208 880
WIRE 2144 896 2112 896
WIRE 160 912 112 912
WIRE 848 912 800 912
WIRE 1520 912 1488 912
WIRE 352 928 224 928
WIRE 432 928 352 928
WIRE 1040 928 912 928
WIRE 1120 928 1040 928
WIRE 1632 928 1584 928
WIRE 1728 928 1696 928
WIRE 1824 928 1728 928
WIRE 1936 928 1936 864
WIRE 1936 928 1824 928
WIRE -192 944 -192 624
WIRE -96 944 -128 944
WIRE 160 944 -96 944
WIRE 352 944 352 928
WIRE 432 944 432 928
WIRE 512 944 432 944
WIRE 624 944 576 944
WIRE 848 944 624 944
WIRE 1040 944 1040 928
WIRE 1120 944 1120 928
WIRE 1216 944 1120 944
WIRE 1328 944 1280 944
WIRE 1520 944 1328 944
WIRE 1824 944 1824 928
WIRE 1824 944 1776 944
WIRE 1872 944 1824 944
WIRE -96 960 -96 944
WIRE 2272 960 2272 880
WIRE 2320 960 2272 960
WIRE 2384 960 2320 960
WIRE 1776 976 1776 944
WIRE 1872 976 1872 944
WIRE 2016 976 2016 960
WIRE 2320 976 2320 960
WIRE 112 1024 112 912
WIRE 352 1024 112 1024
WIRE 800 1024 800 912
WIRE 1040 1024 800 1024
WIRE 1488 1024 1488 912
WIRE 1728 1024 1728 928
WIRE 1728 1024 1488 1024
WIRE 352 1056 352 1024
WIRE 624 1056 624 1024
WIRE 1040 1056 1040 1024
WIRE 1328 1056 1328 1024
WIRE -96 1072 -96 1040
WIRE 2016 1072 2016 1056
WIRE 2112 1072 2112 896
WIRE 2112 1072 2016 1072
WIRE 2144 1072 2112 1072
WIRE 2272 1072 2272 960
WIRE 2272 1072 2224 1072
WIRE 1776 1104 1776 1040
WIRE 1824 1104 1776 1104
WIRE 1872 1104 1872 1056
WIRE 1872 1104 1824 1104
WIRE 2016 1104 2016 1072
WIRE 1824 1136 1824 1104
WIRE 352 1152 352 1136
WIRE 1040 1152 1040 1136
WIRE 2016 1200 2016 1184
FLAG 352 544 VG
FLAG 1136 528 VG
FLAG -96 1072 VG
FLAG 752 400 VG
FLAG 1328 1056 VG
FLAG 352 1152 VG
FLAG 1824 1136 0
FLAG 2016 1200 0
FLAG 2320 1056 VCC
FLAG 2176 848 VCC
FLAG 1552 896 VCC
FLAG 1552 960 0
FLAG 2176 912 0
FLAG 192 960 0
FLAG 192 896 VCC
FLAG 1232 208 VCC
FLAG 448 192 VCC
FLAG 448 256 0
FLAG 1232 272 0
FLAG 2384 960 Out
IOPIN 2384 960 Out
FLAG -32 384 0
FLAG 1744 592 0
FLAG 1744 272 VCC
FLAG 1968 448 0
FLAG 1968 384 VCC
FLAG 2112 416 VG
FLAG 2016 960 VCC
FLAG 1040 1152 VG
FLAG 880 960 0
FLAG 880 896 VCC
FLAG 624 1056 VG
FLAG 1520 240 LOWPASSOUT
SYMBOL cap 288 224 R90
WINDOW 0 0 32 VBottom 2
WINDOW 3 32 32 VTop 2
SYMATTR InstName C1
SYMATTR Value 0.1
SYMBOL res 288 304 R0
SYMATTR InstName R3
SYMATTR Value 1k
SYMBOL res 528 368 R90
WINDOW 0 0 56 VBottom 2
WINDOW 3 32 56 VTop 2
SYMATTR InstName R4
SYMATTR Value 2k
SYMBOL res 368 400 R0
SYMATTR InstName R5
SYMATTR Value 1k
SYMBOL cap 736 240 R90
WINDOW 0 0 32 VBottom 2
WINDOW 3 32 32 VTop 2
SYMATTR InstName C2
SYMATTR Value 0.1
SYMBOL res 736 288 R0
SYMATTR InstName R6
SYMATTR Value 22k
SYMBOL res 1072 240 R90
WINDOW 0 0 56 VBottom 2
WINDOW 3 32 56 VTop 2
SYMATTR InstName R7
SYMATTR Value 680
SYMBOL cap 1072 320 R0
SYMATTR InstName C3
SYMATTR Value 0.1
SYMBOL res 1152 320 R0
SYMATTR InstName R8
SYMATTR Value 1k
SYMBOL res 1344 320 R90
WINDOW 0 0 56 VBottom 2
WINDOW 3 32 56 VTop 2
SYMATTR InstName R9
SYMATTR Value 2k
SYMBOL cap -192 928 M90
WINDOW 0 0 32 VBottom 2
WINDOW 3 32 32 VTop 2
SYMATTR InstName C4
SYMATTR Value 0.1
SYMBOL res -112 944 R0
SYMATTR InstName R10
SYMATTR Value 22k
SYMBOL res 336 928 R0
SYMATTR InstName R11
SYMATTR Value 10k
SYMBOL cap 1216 928 M90
WINDOW 0 0 32 VBottom 2
WINDOW 3 32 32 VTop 2
SYMATTR InstName C5
SYMATTR Value 0.1
SYMBOL res 1312 928 R0
SYMATTR InstName R12
SYMATTR Value 22k
SYMBOL res 336 1040 R0
SYMATTR InstName R13
SYMATTR Value 1.5k
SYMBOL LED 1632 944 R270
WINDOW 0 32 32 VTop 2
WINDOW 3 0 32 VBottom 2
SYMATTR InstName D2
SYMATTR Value DI_1N4006
SYMATTR Description Diode
SYMATTR Type diode
SYMBOL cap 1760 976 R0
SYMATTR InstName C6
SYMATTR Value 22n
SYMBOL res 1856 960 R0
SYMATTR InstName R14
SYMATTR Value 1m
SYMBOL res 2304 960 R0
SYMATTR InstName R15
SYMATTR Value 3.9k
SYMBOL res 2128 1056 M90
WINDOW 0 0 56 VBottom 2
WINDOW 3 32 56 VTop 2
SYMATTR InstName R16
SYMATTR Value 1m
SYMBOL res 2000 1088 R0
SYMATTR InstName R17
SYMATTR Value 50k
SYMBOL voltage 1712 304 R0
WINDOW 123 0 0 Left 2
WINDOW 39 0 0 Left 2
SYMATTR InstName V1
SYMATTR Value 5
SYMBOL res 1776 288 R0
SYMATTR InstName R18
SYMATTR Value 10k
SYMBOL res 1776 448 R0
SYMATTR InstName R19
SYMATTR Value 5.6k
SYMBOL res 2000 960 R0
SYMATTR InstName R20
SYMATTR Value 250k
SYMBOL cap 1856 480 R0
SYMATTR InstName C7
SYMATTR Value 0.1
SYMBOL LM324-national 448 160 R0
SYMATTR InstName U7
SYMBOL LM324-national 1232 176 R0
SYMATTR InstName U8
SYMBOL LM324-national 1968 352 R0
SYMATTR InstName U9
SYMBOL LM324-national 192 864 R0
SYMATTR InstName U10
SYMBOL LM324-national 1552 864 R0
SYMATTR InstName U11
SYMBOL LM324-national 2176 816 R0
SYMATTR InstName U12
SYMBOL res 1024 928 R0
SYMATTR InstName R21
SYMATTR Value 10k
SYMBOL res 1024 1040 R0
SYMATTR InstName R22
SYMATTR Value 1.5k
SYMBOL LM324-national 880 864 R0
SYMATTR InstName U13
SYMBOL cap 512 928 M90
WINDOW 0 0 32 VBottom 2
WINDOW 3 32 32 VTop 2
SYMATTR InstName C8
SYMATTR Value 0.1
SYMBOL res 608 928 R0
SYMATTR InstName R23
SYMATTR Value 22k
SYMBOL voltage -32 256 R0
WINDOW 123 0 0 Left 2
WINDOW 39 0 0 Left 2
SYMATTR InstName V2
SYMATTR Value AC 1
TEXT 208 752 Left 2 ;Gain (7.6)
TEXT 1616 760 Left 2 ;Precision Rectifier
TEXT 1272 760 Left 2 ;AC Coupling
TEXT -144 752 Left 2 ;AC Coupling
TEXT 696 80 Left 2 ;AC Coupling
TEXT 1112 80 Left 2 ;Low-Pass Filter
TEXT 1264 464 Left 1 ;(Chebychev 0.5 dB)
TEXT 1264 488 Left 1 ;Fn = 2.7 kHz
TEXT 1264 512 Left 1 ;G = 3
TEXT 1264 536 Left 1 ;Q = 0.5
TEXT 792 408 Left 1 ;Fn = 454 Hz
TEXT 304 72 Left 2 ;High-Pass Filter
TEXT 448 496 Left 1 ;Fn = 1.5 kHz
TEXT 448 472 Left 1 ;(Chebychev 0.5 dB)
TEXT 448 520 Left 1 ;G = 3
TEXT 448 544 Left 1 ;Q = 0.5
TEXT 1872 216 Left 2 ;Virtual Ground (1.75 V)
TEXT 2152 760 Left 2 ;Comparator
TEXT 2328 1160 Left 1 ;Lower Trip: 0.8 V
TEXT 2328 1136 Left 1 ;Upper Trip: 1 V
TEXT -128 -48 Left 2 ;Phototransistor (R1)
TEXT -128 -16 Left 1 ;sourcing
TEXT -208 1256 Left 2 !.ac dec 100 1 10k
TEXT 896 752 Left 2 ;Gain (7.6)
TEXT 568 760 Left 2 ;AC Coupling
RECTANGLE Normal 2240 640 1616 192
RECTANGLE Normal 144 432 -192 -80
RECTANGLE Normal 608 608 160 48
RECTANGLE Normal 896 448 624 48
RECTANGLE Normal 1472 592 912 48
RECTANGLE Normal 1440 1136 1216 736
RECTANGLE Normal 1952 1168 1456 736
RECTANGLE Normal 2480 1232 1968 736
RECTANGLE Normal 48 720 -208 1136
RECTANGLE Normal 464 720 80 1248
RECTANGLE Normal 1152 720 768 1248
RECTANGLE Normal 736 1136 512 736
